{
    "SeedUrl": "https://www.dice.com/jobs/q-blockchain-jobs",
    "OutLinks": [
        "https://www.dice.com/jobs/detail/Application-Developer%26%2345Electronic-Laboratory-Reporting-%28ELR%29-Team-Louisiana-STD%26%2347HIV%26%2347Hepatitis-Program-New-Orleans-LA-70112/91078659/6592489",
        "https://www.dice.com/jobs/detail/Blockchain-Developer-CGI-Group%2C-Inc.-Lafayette-LA-70593/appblok/2185_J0620%26%23451264",
        "https://www.dice.com/jobs/detail/Blockchain-Developer-CGI-Lafayette-LA-70501/cgiamsbot/2185_J0620%26%23451264",
        "https://www.dice.com/jobs/detail/Blockchain-Developer-Louisiana-Economic-Development-Lafayette-LA-70500/90833617/CGIJ0620%26%23451264",
        "https://www.dice.com/jobs/detail/Computer-Programmer-ActioNet-New-Orleans-LA-70112/RTX156f3f/2093",
        "https://www.dice.com/jobs/detail/Delft3D-Scientific-Programmer-Perspecta-Stennis-Space-Center-MS-39522/10166753/7173_99161",
        "https://www.dice.com/jobs/detail/Docker-Container-Developer-Indotronix-International-Corp-Gretna-LA-70053/indony/JPC%26%234581646",
        "https://www.dice.com/jobs/detail/IBM-Delivery-Center%26%2347IBM-Sterling-Order-Management-HALLMARK-GLOBAL-TECHNOLOGIES-INC-Baton-Rouge-LA-66206/10116544/6503536",
        "https://www.dice.com/jobs/detail/Junior-Backend-developer-%26%2345SynergisticIT%2C-Houston%2C-TX-SynergisticIT-Houston-TX-77001/10397640/6600535",
        "https://www.dice.com/jobs/detail/Senior-Software-Developer-Susco-Metairie-LA-70005/90823961/job_20190118182727_LVPVIXRQPTPNZHBY",
        "https://www.dice.com/jobs/detail/Software-Developer-%26%2345Specialist-%28Patient-Experience-Developer%29-3coast-Webster-TX-77598/itjobs/SC17403",
        "https://www.dice.com/jobs/detail/Software-Engineer%2C-WebApps-FiscalNote-Baton-Rouge-LA-70801/RTX1c4aec/6598652",
        "https://www.dice.com/jobs/detail/Sr.-Software-Engineer-Robert-Half-Baton-Rouge-LA-70809/rhalfint/04640%26%23450011491249",
        "https://www.dice.com/jobs/detail/Sr.-Solution-Architect-Microservices-And-Go-Lang-Avance-Consulting-Houston-TX-77001/10459445/SUBCON_LNT30",
        "https://www.dice.com/jobs/detail/Sr.-Solution-Architect-Microservices-and-Go-Lang-Accolite-Inc-Houston-TX-77001/10300908/6579728",
        "https://www.dice.com/jobs/detail/WCS-Enterprise-Architect-InfoWays-Baton-Rouge-LA-06101/10120411/6268604"
    ],
    "ContentType": "text/html;charset=UTF-8",
    "Parent": "https://www.dice.com/jobs/q-blockchain-jobs",
    "RequiredMatch": "blockchain",
    "DocumentType": "JobBoards",
    "Title": "Blockchain Developer - Louisiana Economic Development - Lafayette, LA | Dice.com",
    "Hash": "AF1B67BA80010AF4483F972F956DF091",
    "Url": "https://www.dice.com/jobs/detail/Blockchain-Developer-Louisiana-Economic-Development-Lafayette-LA-70500/90833617/CGIJ0620%26%23451264",
    "CrawledDate": "2020-07-12",
    "DomainId": "dice",
    "Language": "English",
    "TackIt": "true",
    "Body": " Blockchain Developer Louisiana Economic Development, Lafayette, LA 2 weeks ago Apply Now Create Alert Save Toggle Dropdown Email Create Alert Save Toggle Dropdown Email Apply Now Create Alert Save Toggle Dropdown Email Create Alert Save Toggle Dropdown Email Reported Report a poor listing ",
    "Location": "Lafayette, Louisiana, United States",
    "CompanyName": "Louisiana Economic Development - Lafayette, LA | Dice.com",
    "Salary": "Not Found",
    "PostedDate": "Not Found"
}
